1000 280 0
25 280 0 -20 0
31.25 280 0 -20 0
37.5 280 0 -20 0
43.75 280 0 -20 0
50 280 0 -20 0
56.25 280 0 -20 0
62.5 280 0 -20 0
68.75 280 0 -20 0
75 280 0 -20 0
81.25 280 0 -20 0
87.5 280 0 -20 0
93.75 280 0 -20 0
100 280 0 -20 0
106.25 280 0 -20 0
112.5 280 0 -20 0
118.75 280 0 -20 0
125 280 0 -20 0
131.25 280 0 -20 0
137.5 280 0 -20 0
143.75 280 0 -20 0
150 280 0 -20 0
156.25 280 0 -20 0
162.5 280 0 -20 0
168.75 280 0 -20 0
175 280 0 -20 0
181.25 280 0 -20 0
187.5 280 0 -20 0
193.75 280 0 -20 0
200 280 0 -20 0
206.25 280 0 -20 0
212.5 280 0 -20 0
218.75 280 0 -20 0
225 280 0 -20 0
231.25 280 0 -20 0
237.5 280 0 -20 0
243.75 280 0 -20 0
250 280 0 -20 0
256.25 280 0 -20 0
262.5 280 0 -20 0
268.75 280 0 -20 0
275 280 0 -20 0
281.25 280 0 -20 0
287.5 280 0 -20 0
293.75 280 0 -20 0
300 280 0 -20 0
306.25 280 0 -20 0
312.5 280 0 -20 0
318.75 280 0 -20 0
325 280 0 -20 0
331.25 280 0 -20 0
337.5 280 0 -20 0
343.75 280 0 -20 0
350 280 0 -20 0
356.25 280 0 -20 0
362.5 280 0 -20 0
368.75 280 0 -20 0
375 280 0 -20 0
381.25 280 0 -20 0
387.5 280 0 -20 0
393.75 280 0 -20 0
400 280 0 -20 0
406.25 280 0 -20 0
412.5 280 0 -20 0
418.75 280 0 -20 0
425 280 0 -20 0
431.25 280 0 -20 0
437.5 280 0 -20 0
443.75 280 0 -20 0
450 280 0 -20 0
456.25 280 0 -20 0
462.5 280 0 -20 0
468.75 280 0 -20 0
475 280 0 -20 0
481.25 280 0 -20 0
487.5 280 0 -20 0
493.75 280 0 -20 0
500 280 0 -20 0
506.25 280 0 -20 0
512.5 280 0 -20 0
518.75 280 0 -20 0
525 280 0 -19.999999999999996447 0
531.25 280 0 -19.999999999999996447 0
537.5 280 0 -19.999999999999996447 0
543.75 280 0 -19.999999999999992895 0
550 280 0 -19.999999999999992895 0
556.25 280 0 -19.999999999999985789 0
562.5 280 0 -19.999999999999975131 0
568.75 280.00000000000005684 0 -19.999999999999957367 0
575 280.00000000000005684 0 -19.999999999999932498 0
581.25 280.00000000000011369 0 -19.999999999999886313 0
587.5 280.00000000000017053 0 -19.999999999999815259 0
593.75 280.00000000000028422 0 -19.999999999999694467 0
600 280.00000000000051159 0 -19.999999999999495515 0
606.25 280.00000000000085265 0 -19.999999999999165112 0
612.5 280.00000000000136424 0 -19.999999999998621547 0
618.75 280.00000000000227374 0 -19.999999999997729816 0
625 280.00000000000375167 0 -19.99999999999625544 0
631.25 280.00000000000619593 0 -19.999999999993828936 0
637.5 280.00000000001017497 0 -19.999999999989825028 0
643.75 280.00000000001676881 0 -19.999999999983224086 0
650 280.00000000002768274 0 -19.999999999972342124 0
656.25 280.00000000004558842 0 -19.99999999995440092 0
662.5 280.00000000007520384 0 -19.999999999924817473 0
668.75 280.0000000001239755 0 -19.999999999876049372 0
675 280.00000000020435209 0 -19.999999999795637251 0
681.25 280.00000000033696779 0 -19.999999999663060635 0
687.5 280.00000000055553073 0 -19.999999999444483478 0
693.75 280.00000000091591801 0 -19.999999999084106861 0
700 280.00000000151004542 0 -19.999999998489947473 0
706.25 280.00000000248962806 0 -19.999999997510343519 0
712.5 280.00000000410477696 0 -19.999999995895247906 0
718.75 280.00000000676760692 0 -19.999999993232407292 0
725 280.00000001115785153 0 -19.999999988842127152 0
731.25 280.00000001839623565 0 -19.999999981603778565 0
737.5 280.00000003033022722 0 -19.99999996966975857 0
743.75 280.00000005000612191 0 -19.999999949993885195 0
750 280.00000008244614946 0 -19.99999991755385409 0
756.25 280.0000001359306907 0 -19.99999986406928798 0
762.5 280.00000022411182954 0 -19.999999775888145592 0
768.75 280.00000036949796822 0 -19.999999630502017567 0
775 280.00000060919916223 0 -19.999999390800820009 0
781.25 280.00000100439962125 0 -19.999998995600364537 0
787.5 280.00000165597504065 0 -19.999998344024980668 0
793.75 280.0000027302411354 0 -19.999997269758836183 0
800 280.00000450140646535 0 -19.999995498593516885 0
806.25 280.00000742156407796 0 -19.999992578435925594 0
812.5 280.0000122360891055 0 -19.999987763910922922 0
818.75 280.00002017389630282 0 -19.999979826103672309 0
825 280.000033261121132 0 -19.999966738878892869 0
831.25 280.00005483828829256 0 -19.999945161711725206 0
837.5 280.0000904129719288 0 -19.999909587028085411 0
843.75 280.00014906557134964 0 -19.999850934428632598 0
850 280.00024576698410783 0 -19.999754233015913485 0
856.25 280.00040519963926045 0 -19.999594800360764424 0
862.5 280.0006680568739057 0 -19.999331943126076538 0
868.75 280.00110142764458487 0 -19.998898572355415126 0
875 280.00181591474807874 0 -19.998184085251903497 0
881.25 280.00299384910044864 0 -19.997006150899572674 0
887.5 280.00493578303945696 0 -19.995064216960550141 0
893.75 280.00813707912220707 0 -19.991862920877792931 0
900 280.01341400521863534 0 -19.986585994781339792 0
906.25 280.0221111454769698 0 -19.977888854523055073 0
912.5 280.03644204777600635 0 -19.963557952223972336 0
918.75 280.06004729026949462 0 -19.939952709730519587 0
925 280.09890492626539071 0 -19.901095073734609286 0
931.25 280.16280550863586996 0 -19.837194491364154914 0
937.5 280.26771403697136975 0 -19.73228596302860538 0
943.75 280.4394777052237373 0 -19.560522294776273355 0
950 280.71944839848367792 0 -19.280551601516336291 0
956.25 281.17248923005422512 0 -18.827510769945746461 0
962.5 281.89703492710265209 0 -18.102965072897326593 0
968.75 283.03432720084975927 0 -16.965672799150258498 0
975 284.76811688088469054 0 -15.231883119115297021 0
981.25 287.29702095225422909 0 -12.702979047745746044 0
987.5 290.75765685479979084 0 -9.2423431452001949538 0
993.75 295.10162675192583492 0 -4.8983732480741828397 0
1000 300 0 0 0
1006.25 304.89837324807416508 0 4.8983732480741828397 0
1012.5 309.24234314520020916 0 9.2423431452001949538 0
1018.75 312.70297904774577091 0 12.702979047745746044 0
1025 315.23188311911530946 0 15.231883119115297021 0
1031.25 316.96567279915024073 0 16.965672799150258498 0
1037.5 318.10296507289734791 0 18.102965072897326593 0
1043.75 318.82751076994577488 0 18.827510769945746461 0
1050 319.28055160151632208 0 19.280551601516336291 0
1056.25 319.5605222947762627 0 19.560522294776273355 0
1062.5 319.73228596302863025 0 19.73228596302860538 0
1068.75 319.83719449136413004 0 19.837194491364154914 0
1075 319.90109507373460929 0 19.901095073734609286 0
1081.25 319.93995270973050538 0 19.939952709730519587 0
1087.5 319.96355795222399365 0 19.963557952223972336 0
1093.75 319.9778888545230302 0 19.977888854523055073 0
1100 319.98658599478136466 0 19.986585994781339792 0
1106.25 319.99186292087779293 0 19.991862920877792931 0
1112.5 319.99506421696054304 0 19.995064216960550141 0
1118.75 319.99700615089955136 0 19.997006150899572674 0
1125 319.99818408525192126 0 19.998184085251903497 0
1131.25 319.99889857235541513 0 19.998898572355415126 0
1137.5 319.9993319431260943 0 19.999331943126076538 0
1143.75 319.99959480036073955 0 19.999594800360764424 0
1150 319.99975423301589217 0 19.999754233015913485 0
1156.25 319.99985093442865036 0 19.999850934428632598 0
1162.5 319.9999095870280712 0 19.999909587028085411 0
1168.75 319.99994516171170744 0 19.999945161711725206 0
1175 319.999966738878868 0 19.999966738878892869 0
1181.25 319.99997982610369718 0 19.999979826103672309 0
1187.5 319.9999877639108945 0 19.999987763910922922 0
1193.75 319.99999257843592204 0 19.999992578435925594 0
1200 319.99999549859353465 0 19.999995498593516885 0
1206.25 319.9999972697588646 0 19.999997269758836183 0
1212.5 319.99999834402495935 0 19.999998344024980668 0
1218.75 319.99999899560037875 0 19.999998995600364537 0
1225 319.99999939080083777 0 19.999999390800820009 0
1231.25 319.99999963050203178 0 19.999999630502017567 0
1237.5 319.99999977588817046 0 19.999999775888145592 0
1243.75 319.9999998640693093 0 19.99999986406928798 0
1250 319.99999991755385054 0 19.99999991755385409 0
1256.25 319.99999994999387809 0 19.999999949993885195 0
1262.5 319.99999996966977278 0 19.99999996966975857 0
1268.75 319.99999998160376435 0 19.999999981603778565 0
1275 319.99999998884214847 0 19.999999988842127152 0
1281.25 319.99999999323239308 0 19.999999993232407292 0
1287.5 319.99999999589522304 0 19.999999995895247906 0
1293.75 319.99999999751037194 0 19.999999997510343519 0
1300 319.99999999848995458 0 19.999999998489947473 0
1306.25 319.99999999908408199 0 19.999999999084106861 0
1312.5 319.99999999944446927 0 19.999999999444483478 0
1318.75 319.99999999966303221 0 19.999999999663060635 0
1325 319.99999999979564791 0 19.999999999795637251 0
1331.25 319.9999999998760245 0 19.999999999876049372 0
1337.5 319.99999999992479616 0 19.999999999924817473 0
1343.75 319.99999999995441158 0 19.99999999995440092 0
1350 319.99999999997231726 0 19.999999999972342124 0
1356.25 319.99999999998323119 0 19.999999999983224086 0
1362.5 319.99999999998982503 0 19.999999999989825028 0
1368.75 319.99999999999380407 0 19.999999999993828936 0
1375 319.99999999999624833 0 19.99999999999625544 0
1381.25 319.99999999999772626 0 19.999999999997729816 0
1387.5 319.99999999999863576 0 19.999999999998621547 0
1393.75 319.99999999999914735 0 19.999999999999165112 0
1400 319.99999999999948841 0 19.999999999999495515 0
1406.25 319.99999999999971578 0 19.999999999999694467 0
1412.5 319.99999999999982947 0 19.999999999999815259 0
1418.75 319.99999999999988631 0 19.999999999999886313 0
1425 319.99999999999994316 0 19.999999999999932498 0
1431.25 319.99999999999994316 0 19.999999999999957367 0
1437.5 320 0 19.999999999999975131 0
1443.75 320 0 19.999999999999985789 0
1450 320 0 19.999999999999992895 0
1456.25 320 0 19.999999999999992895 0
1462.5 320 0 19.999999999999996447 0
1468.75 320 0 19.999999999999996447 0
1475 320 0 19.999999999999996447 0
1481.25 320 0 20 0
1487.5 320 0 20 0
1493.75 320 0 20 0
1500 320 0 20 0
1506.25 320 0 20 0
1512.5 320 0 20 0
1518.75 320 0 20 0
1525 320 0 20 0
1531.25 320 0 20 0
1537.5 320 0 20 0
1543.75 320 0 20 0
1550 320 0 20 0
1556.25 320 0 20 0
1562.5 320 0 20 0
1568.75 320 0 20 0
1575 320 0 20 0
1581.25 320 0 20 0
1587.5 320 0 20 0
1593.75 320 0 20 0
1600 320 0 20 0
1606.25 320 0 20 0
1612.5 320 0 20 0
1618.75 320 0 20 0
1625 320 0 20 0
1631.25 320 0 20 0
1637.5 320 0 20 0
1643.75 320 0 20 0
1650 320 0 20 0
1656.25 320 0 20 0
1662.5 320 0 20 0
1668.75 320 0 20 0
1675 320 0 20 0
1681.25 320 0 20 0
1687.5 320 0 20 0
1693.75 320 0 20 0
1700 320 0 20 0
1706.25 320 0 20 0
1712.5 320 0 20 0
1718.75 320 0 20 0
1725 320 0 20 0
1731.25 320 0 20 0
1737.5 320 0 20 0
1743.75 320 0 20 0
1750 320 0 20 0
1756.25 320 0 20 0
1762.5 320 0 20 0
1768.75 320 0 20 0
1775 320 0 20 0
1781.25 320 0 20 0
1787.5 320 0 20 0
1793.75 320 0 20 0
1800 320 0 20 0
1806.25 320 0 20 0
1812.5 320 0 20 0
1818.75 320 0 20 0
1825 320 0 20 0
1831.25 320 0 20 0
1837.5 320 0 20 0
1843.75 320 0 20 0
1850 320 0 20 0
1856.25 320 0 20 0
1862.5 320 0 20 0
1868.75 320 0 20 0
1875 320 0 20 0
1881.25 320 0 20 0
1887.5 320 0 20 0
1893.75 320 0 20 0
1900 320 0 20 0
1906.25 320 0 20 0
1912.5 320 0 20 0
1918.75 320 0 20 0
1925 320 0 20 0
1931.25 320 0 20 0
1937.5 320 0 20 0
1943.75 320 0 20 0
1950 320 0 20 0
1956.25 320 0 20 0
1962.5 320 0 20 0
1968.75 320 0 20 0
1975 320 0 20 0
1981.25 320 0 20 0
1987.5 320 0 20 0
1993.75 320 0 20 0
2000 320 0 20 0
2006.25 320 0 20 0
2012.5 320 0 20 0
2018.75 320 0 20 0
