1000 280 0
25 280 0 -20 0
37.5 280 0 -20 0
50 280 0 -20 0
62.5 280 0 -20 0
75 280 0 -20 0
87.5 280 0 -20 0
100 280 0 -20 0
112.5 280 0 -20 0
125 280 0 -20 0
137.5 280 0 -20 0
150 280 0 -20 0
162.5 280 0 -20 0
175 280 0 -20 0
187.5 280 0 -20 0
200 280 0 -20 0
212.5 280 0 -20 0
225 280 0 -20 0
237.5 280 0 -20 0
250 280 0 -20 0
262.5 280 0 -20 0
275 280 0 -20 0
287.5 280 0 -20 0
300 280 0 -20 0
312.5 280 0 -20 0
325 280 0 -20 0
337.5 280 0 -20 0
350 280 0 -20 0
362.5 280 0 -20 0
375 280 0 -20 0
387.5 280 0 -20 0
400 280 0 -20 0
412.5 280 0 -20 0
425 280 0 -20 0
437.5 280 0 -20 0
450 280 0 -20 0
462.5 280 0 -20 0
475 280 0 -20 0
487.5 280 0 -20 0
500 280 0 -20 0
512.5 280 0 -20 0
525 280 0 -19.999999999999996447 0
537.5 280 0 -19.999999999999996447 0
550 280 0 -19.999999999999992895 0
562.5 280 0 -19.999999999999975131 0
575 280.00000000000005684 0 -19.999999999999932498 0
587.5 280.00000000000017053 0 -19.999999999999815259 0
600 280.00000000000051159 0 -19.999999999999495515 0
612.5 280.00000000000136424 0 -19.999999999998621547 0
625 280.00000000000375167 0 -19.99999999999625544 0
637.5 280.00000000001017497 0 -19.999999999989825028 0
650 280.00000000002768274 0 -19.999999999972342124 0
662.5 280.00000000007520384 0 -19.999999999924817473 0
675 280.00000000020435209 0 -19.999999999795637251 0
687.5 280.00000000055553073 0 -19.999999999444483478 0
700 280.00000000151004542 0 -19.999999998489947473 0
712.5 280.00000000410477696 0 -19.999999995895247906 0
725 280.00000001115785153 0 -19.999999988842127152 0
737.5 280.00000003033022722 0 -19.99999996966975857 0
750 280.00000008244614946 0 -19.99999991755385409 0
762.5 280.00000022411182954 0 -19.999999775888145592 0
775 280.00000060919916223 0 -19.999999390800820009 0
787.5 280.00000165597504065 0 -19.999998344024980668 0
800 280.00000450140646535 0 -19.999995498593516885 0
812.5 280.0000122360891055 0 -19.999987763910922922 0
825 280.000033261121132 0 -19.999966738878892869 0
837.5 280.0000904129719288 0 -19.999909587028085411 0
850 280.00024576698410783 0 -19.999754233015913485 0
862.5 280.0006680568739057 0 -19.999331943126076538 0
875 280.00181591474807874 0 -19.998184085251903497 0
887.5 280.00493578303945696 0 -19.995064216960550141 0
900 280.01341400521863534 0 -19.986585994781339792 0
912.5 280.03644204777600635 0 -19.963557952223972336 0
925 280.09890492626539071 0 -19.901095073734609286 0
937.5 280.26771403697136975 0 -19.73228596302860538 0
950 280.71944839848367792 0 -19.280551601516336291 0
962.5 281.89703492710265209 0 -18.102965072897326593 0
975 284.76811688088469054 0 -15.231883119115297021 0
987.5 290.75765685479979084 0 -9.2423431452001949538 0
1000 300 0 0 0
1012.5 309.24234314520020916 0 9.2423431452001949538 0
1025 315.23188311911530946 0 15.231883119115297021 0
1037.5 318.10296507289734791 0 18.102965072897326593 0
1050 319.28055160151632208 0 19.280551601516336291 0
1062.5 319.73228596302863025 0 19.73228596302860538 0
1075 319.90109507373460929 0 19.901095073734609286 0
1087.5 319.96355795222399365 0 19.963557952223972336 0
1100 319.98658599478136466 0 19.986585994781339792 0
1112.5 319.99506421696054304 0 19.995064216960550141 0
1125 319.99818408525192126 0 19.998184085251903497 0
1137.5 319.9993319431260943 0 19.999331943126076538 0
1150 319.99975423301589217 0 19.999754233015913485 0
1162.5 319.9999095870280712 0 19.999909587028085411 0
1175 319.999966738878868 0 19.999966738878892869 0
1187.5 319.9999877639108945 0 19.999987763910922922 0
1200 319.99999549859353465 0 19.999995498593516885 0
1212.5 319.99999834402495935 0 19.999998344024980668 0
1225 319.99999939080083777 0 19.999999390800820009 0
1237.5 319.99999977588817046 0 19.999999775888145592 0
1250 319.99999991755385054 0 19.99999991755385409 0
1262.5 319.99999996966977278 0 19.99999996966975857 0
1275 319.99999998884214847 0 19.999999988842127152 0
1287.5 319.99999999589522304 0 19.999999995895247906 0
1300 319.99999999848995458 0 19.999999998489947473 0
1312.5 319.99999999944446927 0 19.999999999444483478 0
1325 319.99999999979564791 0 19.999999999795637251 0
1337.5 319.99999999992479616 0 19.999999999924817473 0
1350 319.99999999997231726 0 19.999999999972342124 0
1362.5 319.99999999998982503 0 19.999999999989825028 0
1375 319.99999999999624833 0 19.99999999999625544 0
1387.5 319.99999999999863576 0 19.999999999998621547 0
1400 319.99999999999948841 0 19.999999999999495515 0
1412.5 319.99999999999982947 0 19.999999999999815259 0
1425 319.99999999999994316 0 19.999999999999932498 0
1437.5 320 0 19.999999999999975131 0
1450 320 0 19.999999999999992895 0
1462.5 320 0 19.999999999999996447 0
1475 320 0 19.999999999999996447 0
1487.5 320 0 20 0
1500 320 0 20 0
1512.5 320 0 20 0
1525 320 0 20 0
1537.5 320 0 20 0
1550 320 0 20 0
1562.5 320 0 20 0
1575 320 0 20 0
1587.5 320 0 20 0
1600 320 0 20 0
1612.5 320 0 20 0
1625 320 0 20 0
1637.5 320 0 20 0
1650 320 0 20 0
1662.5 320 0 20 0
1675 320 0 20 0
1687.5 320 0 20 0
1700 320 0 20 0
1712.5 320 0 20 0
1725 320 0 20 0
1737.5 320 0 20 0
1750 320 0 20 0
1762.5 320 0 20 0
1775 320 0 20 0
1787.5 320 0 20 0
1800 320 0 20 0
1812.5 320 0 20 0
1825 320 0 20 0
1837.5 320 0 20 0
1850 320 0 20 0
1862.5 320 0 20 0
1875 320 0 20 0
1887.5 320 0 20 0
1900 320 0 20 0
1912.5 320 0 20 0
1925 320 0 20 0
1937.5 320 0 20 0
1950 320 0 20 0
1962.5 320 0 20 0
1975 320 0 20 0
1987.5 320 0 20 0
2000 320 0 20 0
2012.5 320 0 20 0
