1000 280 0
25 280.0000001359306907 0 -19.99999986406928798 0
31.25 280.00000015402969211 0 -19.999999845970325651 0
37.5 280.00000017453851342 0 -19.999999825461507896 0
43.75 280.00000019777803573 0 -19.999999802221982037 0
50 280.00000022411182954 0 -19.999999775888145592 0
56.25 280.00000025395200964 0 -19.999999746047997462 0
62.5 280.00000028776531735 0 -19.999999712234682647 0
68.75 280.00000032608085121 0 -19.999999673919173659 0
75 280.00000036949796822 0 -19.999999630502017567 0
81.25 280.00000041869606093 0 -19.999999581303931961 0
87.5 280.00000047444478923 0 -19.999999525555200108 0
93.75 280.00000053761641539 0 -19.999999462383609483 0
100 280.00000060919916223 0 -19.999999390800820009 0
106.25 280.00000069031312933 0 -19.999999309686891991 0
112.5 280.00000078222723232 0 -19.999999217772771232 0
118.75 280.00000088637955287 0 -19.99999911362042937 0
125 280.00000100439962125 0 -19.999998995600364537 0
131.25 280.00000113813388225 0 -19.999998861866107092 0
137.5 280.00000128967462842 0 -19.999998710325346707 0
143.75 280.00000146139285562 0 -19.999998538607169252 0
150 280.00000165597504065 0 -19.999998344024980668 0
156.25 280.0000018764655465 0 -19.999998123534478367 0
162.5 280.00000212631397289 0 -19.999997873686009342 0
168.75 280.0000024094293849 0 -19.99999759057061155 0
175 280.0000027302411354 0 -19.999997269758836183 0
181.25 280.00000309376849827 0 -19.999996906231476856 0
187.5 280.00000350569899865 0 -19.999996494301019112 0
193.75 280.00000397247731598 0 -19.999996027522669806 0
200 280.00000450140646535 0 -19.999995498593516885 0
206.25 280.00000510076171167 0 -19.999994899238284773 0
212.5 280.0000057799201727 0 -19.99999422007985217 0
218.75 280.00000654950747503 0 -19.99999345049254984 0
225 280.00000742156407796 0 -19.999992578435925594 0
231.25 280.00000840973365257 0 -19.999991590266358088 0
237.5 280.00000952947641508 0 -19.999990470523599129 0
243.75 280.00001079831110928 0 -19.999989201688901375 0
250 280.0000122360891055 0 -19.999987763910922922 0
256.25 280.0000138653048225 0 -19.999986134695156181 0
262.5 280.00001571144798618 0 -19.999984288551988953 0
268.75 280.00001780340210189 0 -19.999982196597922979 0
275 280.00002017389630282 0 -19.999979826103672309 0
281.25 280.00002286001790708 0 -19.999977139982117791 0
287.5 280.00002590379193634 0 -19.999974096208070762 0
293.75 280.00002935283919214 0 -19.999970647160779436 0
300 280.000033261121132 0 -19.999966738878892869 0
306.25 280.00003768978376684 0 -19.999962310216243822 0
312.5 280.00004270811479046 0 -19.999957291885198885 0
318.75 280.00004839462735617 0 -19.999951605372658037 0
325 280.00005483828829256 0 -19.999945161711725206 0
331.25 280.00006213991019877 0 -19.999937860089815445 0
337.5 280.00007041372850836 0 -19.999929586271466775 0
343.75 280.00007978918887375 0 -19.999920210811140464 0
350 280.0000904129719288 0 -19.999909587028085411 0
356.25 280.00010245128845554 0 -19.999897548711569328 0
362.5 280.00011609247940214 0 -19.999883907520590753 0
368.75 280.00013154996258891 0 -19.999868450037382672 0
375 280.00014906557134964 0 -19.999850934428632598 0
381.25 280.00016891333780222 0 -19.99983108666221554 0
387.5 280.00019140377980875 0 -19.999808596220205459 0
393.75 280.00021688875881409 0 -19.999783111241200118 0
400 280.00024576698410783 0 -19.999754233015913485 0
406.25 280.00027849025002524 0 -19.999721509749996073 0
412.5 280.00031557050346009 0 -19.999684429496550564 0
418.75 280.00035758785219286 0 -19.999642412147807136 0
425 280.00040519963926045 0 -19.999594800360764424 0
431.25 280.00045915072507796 0 -19.999540849274918486 0
437.5 280.00052028513863434 0 -19.999479714861340796 0
443.75 280.00058955927897841 0 -19.999410440721018034 0
450 280.0006680568739057 0 -19.999331943126076538 0
456.25 280.0007570059298132 0 -19.999242994070158375 0
462.5 280.00085779793681695 0 -19.999142202063161733 0
468.75 280.00097200962972011 0 -19.999027990370269237 0
475 280.00110142764458487 0 -19.998898572355415126 0
481.25 280.0012480764557381 0 -19.998751923544240583 0
487.5 280.00141425002965434 0 -19.998585749970331449 0
493.75 280.00160254768917412 0 -19.998397452310832989 0
500 280.00181591474807874 0 -19.998184085251903497 0
506.25 280.00205768854971211 0 -19.997942311450312758 0
512.5 280.00233165062644503 0 -19.997668349373554975 0
518.75 280.00264208579420711 0 -19.997357914205814211 0
525 280.00299384910044864 0 -19.997006150899572674 0
531.25 280.00339244166895014 0 -19.996607558331056964 0
537.5 280.00384409661995733 0 -19.996155903380021357 0
543.75 280.00435587640106405 0 -19.995644123598935948 0
550 280.00493578303945696 0 -19.995064216960550141 0
556.25 280.00559288302588357 0 -19.994407116974105776 0
562.5 280.00633744876409992 0 -19.99366255123589653 0
568.75 280.00718111877387173 0 -19.992818881226128269 0
575 280.00813707912220707 0 -19.991862920877792931 0
581.25 280.00922026887974425 0 -19.99077973112027351 0
587.5 280.01044761276381223 0 -19.989552387236170006 0
593.75 280.01183828454054492 0 -19.988161715459476397 0
600 280.01341400521863534 0 -19.986585994781339792 0
606.25 280.01519938059004744 0 -19.984800619409924138 0
612.5 280.01722228325297692 0 -19.982777716747015972 0
618.75 280.01951428491128127 0 -19.980485715088708076 0
625 280.0221111454769698 0 -19.977888854523055073 0
631.25 280.02505336632435728 0 -19.974946633675621399 0
637.5 280.02838681596404058 0 -19.971613184035977184 0
643.75 280.03216343742519712 0 -19.967836562574831305 0
650 280.03644204777600635 0 -19.963557952223972336 0
656.25 280.04128924147016733 0 -19.958710758529807805 0
662.5 280.04678041060219584 0 -19.953219589397779288 0
668.75 280.05300089668850205 0 -19.946999103311473078 0
675 280.06004729026949462 0 -19.939952709730519587 0
681.25 280.06802889645740606 0 -19.931971103542590384 0
687.5 280.07706938653308271 0 -19.92293061346689953 0
693.75 280.08730865781382136 0 -19.912691342186192855 0
700 280.09890492626539071 0 -19.901095073734609286 0
706.25 280.1120370786848639 0 -19.887962921315160969 0
712.5 280.12690731369940522 0 -19.873092686300594778 0
718.75 280.143744103256779 0 -19.856255896743196132 0
725 280.16280550863586996 0 -19.837194491364154914 0
731.25 280.18438288717499063 0 -19.815617112825030688 0
737.5 280.20880502774235765 0 -19.791194972257663665 0
743.75 280.23644275424976513 0 -19.763557245750249081 0
750 280.26771403697136975 0 -19.73228596302860538 0
756.25 280.30308965071441207 0 -19.69691034928556661 0
762.5 280.34309941654845488 0 -19.656900583451520248 0
768.75 280.38833905925895351 0 -19.611660940741039383 0
775 280.4394777052237373 0 -19.560522294776273355 0
781.25 280.49726603412744907 0 -19.502733965872568689 0
787.5 280.56254508172980877 0 -19.437454918270180571 0
793.75 280.63625566847258597 0 -19.36374433152741048 0
800 280.71944839848367792 0 -19.280551601516336291 0
806.25 280.81329413370633574 0 -19.186705866293650047 0
812.5 280.91909479640105474 0 -19.080905203598973685 0
818.75 281.03829428791186729 0 -18.961705712088125608 0
825 281.17248923005422512 0 -18.827510769945746461 0
831.25 281.32343913554814208 0 -18.676560864451833055 0
837.5 281.49307549376516135 0 -18.506924506234820882 0
843.75 281.683509116624748 0 -18.316490883375248444 0
850 281.89703492710265209 0 -18.102965072897326593 0
856.25 282.13613319199293983 0 -17.86386680800703175 0
862.5 282.40346600696028645 0 -17.596533993039695787 0
868.75 282.70186764558513914 0 -17.298132354414835987 0
875 283.03432720084975927 0 -16.965672799150258498 0
881.25 283.40396180028079698 0 -16.59603819971918881 0
887.5 283.81397859596438593 0 -16.186021404035621174 0
893.75 284.26762375782607251 0 -15.732376242173952363 0
900 284.76811688088469054 0 -15.231883119115297021 0
906.25 285.31856960791316169 0 -14.681430392086831205 0
912.5 285.9218879212675688 0 -14.078112078732424095 0
918.75 286.58065851586252393 0 -13.419341484137474296 0
925 287.29702095225422909 0 -12.702979047745746044 0
931.25 288.07252889041512844 0 -11.927471109584846687 0
937.5 288.90800555301234454 0 -11.091994446987644807 0
943.75 289.80340052529487593 0 -10.196599474705132948 0
950 290.75765685479979084 0 -9.2423431452001949538 0
956.25 291.76859888651955544 0 -8.2314011134804481173 0
962.5 292.83285203298430588 0 -7.1671479670157189901 0
968.75 293.94580541335784574 0 -6.0541945866421702505 0
975 295.10162675192583492 0 -4.8983732480741828397 0
981.25 296.29333600183719 0 -3.706663998162789575 0
987.5 297.51293996456809055 0 -2.4870600354319236658 0
993.75 298.75162506504972271 0 -1.2483749349502502035 0
1000 300 0 0 0
1006.25 301.24837493495027729 0 1.2483749349502502035 0
1012.5 302.48706003543190945 0 2.4870600354319236658 0
1018.75 303.70666399816281 0 3.706663998162789575 0
1025 304.89837324807416508 0 4.8983732480741828397 0
1031.25 306.05419458664215426 0 6.0541945866421702505 0
1037.5 307.16714796701569412 0 7.1671479670157189901 0
1043.75 308.23140111348044456 0 8.2314011134804481173 0
1050 309.24234314520020916 0 9.2423431452001949538 0
1056.25 310.19659947470512407 0 10.196599474705132948 0
1062.5 311.09199444698765546 0 11.091994446987644807 0
1068.75 311.92747110958487156 0 11.927471109584846687 0
1075 312.70297904774577091 0 12.702979047745746044 0
1081.25 313.41934148413747607 0 13.419341484137474296 0
1087.5 314.0781120787324312 0 14.078112078732424095 0
1093.75 314.68143039208683831 0 14.681430392086831205 0
1100 315.23188311911530946 0 15.231883119115297021 0
1106.25 315.73237624217392749 0 15.732376242173952363 0
1112.5 316.18602140403561407 0 16.186021404035621174 0
1118.75 316.59603819971920302 0 16.59603819971918881 0
1125 316.96567279915024073 0 16.965672799150258498 0
1131.25 317.29813235441486086 0 17.298132354414835987 0
1137.5 317.59653399303971355 0 17.596533993039695787 0
1143.75 317.86386680800706017 0 17.86386680800703175 0
1150 318.10296507289734791 0 18.102965072897326593 0
1156.25 318.316490883375252 0 18.316490883375248444 0
1162.5 318.50692450623483865 0 18.506924506234820882 0
1168.75 318.67656086445185792 0 18.676560864451833055 0
1175 318.82751076994577488 0 18.827510769945746461 0
1181.25 318.96170571208813271 0 18.961705712088125608 0
1187.5 319.08090520359894526 0 19.080905203598973685 0
1193.75 319.18670586629366426 0 19.186705866293650047 0
1200 319.28055160151632208 0 19.280551601516336291 0
1206.25 319.36374433152741403 0 19.36374433152741048 0
1212.5 319.43745491827019123 0 19.437454918270180571 0
1218.75 319.50273396587255093 0 19.502733965872568689 0
1225 319.5605222947762627 0 19.560522294776273355 0
1231.25 319.61166094074104649 0 19.611660940741039383 0
1237.5 319.65690058345154512 0 19.656900583451520248 0
1243.75 319.69691034928558793 0 19.69691034928556661 0
1250 319.73228596302863025 0 19.73228596302860538 0
1256.25 319.76355724575023487 0 19.763557245750249081 0
1262.5 319.79119497225764235 0 19.791194972257663665 0
1268.75 319.81561711282500937 0 19.815617112825030688 0
1275 319.83719449136413004 0 19.837194491364154914 0
1281.25 319.856255896743221 0 19.856255896743196132 0
1287.5 319.87309268630059478 0 19.873092686300594778 0
1293.75 319.8879629213151361 0 19.887962921315160969 0
1300 319.90109507373460929 0 19.901095073734609286 0
1306.25 319.91269134218617864 0 19.912691342186192855 0
1312.5 319.92293061346691729 0 19.92293061346689953 0
1318.75 319.93197110354259394 0 19.931971103542590384 0
1325 319.93995270973050538 0 19.939952709730519587 0
1331.25 319.94699910331149795 0 19.946999103311473078 0
1337.5 319.95321958939780416 0 19.953219589397779288 0
1343.75 319.95871075852983267 0 19.958710758529807805 0
1350 319.96355795222399365 0 19.963557952223972336 0
1356.25 319.96783656257480288 0 19.967836562574831305 0
1362.5 319.97161318403595942 0 19.971613184035977184 0
1368.75 319.97494663367564272 0 19.974946633675621399 0
1375 319.9778888545230302 0 19.977888854523055073 0
1381.25 319.98048571508871873 0 19.980485715088708076 0
1387.5 319.98277771674702308 0 19.982777716747015972 0
1393.75 319.98480061940995256 0 19.984800619409924138 0
1400 319.98658599478136466 0 19.986585994781339792 0
1406.25 319.98816171545945508 0 19.988161715459476397 0
1412.5 319.98955238723618777 0 19.989552387236170006 0
1418.75 319.99077973112025575 0 19.99077973112027351 0
1425 319.99186292087779293 0 19.991862920877792931 0
1431.25 319.99281888122612827 0 19.992818881226128269 0
1437.5 319.99366255123590008 0 19.99366255123589653 0
1443.75 319.99440711697411643 0 19.994407116974105776 0
1450 319.99506421696054304 0 19.995064216960550141 0
1456.25 319.99564412359893595 0 19.995644123598935948 0
1462.5 319.99615590338004267 0 19.996155903380021357 0
1468.75 319.99660755833104986 0 19.996607558331056964 0
1475 319.99700615089955136 0 19.997006150899572674 0
1481.25 319.99735791420579289 0 19.997357914205814211 0
1487.5 319.99766834937355497 0 19.997668349373554975 0
1493.75 319.99794231145028789 0 19.997942311450312758 0
1500 319.99818408525192126 0 19.998184085251903497 0
1506.25 319.99839745231082588 0 19.998397452310832989 0
1512.5 319.99858574997034566 0 19.998585749970331449 0
1518.75 319.9987519235442619 0 19.998751923544240583 0
1525 319.99889857235541513 0 19.998898572355415126 0
1531.25 319.99902799037027989 0 19.999027990370269237 0
1537.5 319.99914220206318305 0 19.999142202063161733 0
1543.75 319.9992429940701868 0 19.999242994070158375 0
1550 319.9993319431260943 0 19.999331943126076538 0
1556.25 319.99941044072102159 0 19.999410440721018034 0
1562.5 319.99947971486136566 0 19.999479714861340796 0
1568.75 319.99954084927492204 0 19.999540849274918486 0
1575 319.99959480036073955 0 19.999594800360764424 0
1581.25 319.99964241214780714 0 19.999642412147807136 0
1587.5 319.99968442949653991 0 19.999684429496550564 0
1593.75 319.99972150974997476 0 19.999721509749996073 0
1600 319.99975423301589217 0 19.999754233015913485 0
1606.25 319.99978311124118591 0 19.999783111241200118 0
1612.5 319.99980859622019125 0 19.999808596220205459 0
1618.75 319.99983108666219778 0 19.99983108666221554 0
1625 319.99985093442865036 0 19.999850934428632598 0
1631.25 319.99986845003741109 0 19.999868450037382672 0
1637.5 319.99988390752059786 0 19.999883907520590753 0
1643.75 319.99989754871154446 0 19.999897548711569328 0
1650 319.9999095870280712 0 19.999909587028085411 0
1656.25 319.99992021081112625 0 19.999920210811140464 0
1662.5 319.99992958627149164 0 19.999929586271466775 0
1668.75 319.99993786008980123 0 19.999937860089815445 0
1675 319.99994516171170744 0 19.999945161711725206 0
1681.25 319.99995160537264383 0 19.999951605372658037 0
1687.5 319.99995729188520954 0 19.999957291885198885 0
1693.75 319.99996231021623316 0 19.999962310216243822 0
1700 319.999966738878868 0 19.999966738878892869 0
1706.25 319.99997064716080786 0 19.999970647160779436 0
1712.5 319.99997409620806366 0 19.999974096208070762 0
1718.75 319.99997713998209292 0 19.999977139982117791 0
1725 319.99997982610369718 0 19.999979826103672309 0
1731.25 319.99998219659789811 0 19.999982196597922979 0
1737.5 319.99998428855201382 0 19.999984288551988953 0
1743.75 319.9999861346951775 0 19.999986134695156181 0
1750 319.9999877639108945 0 19.999987763910922922 0
1756.25 319.99998920168889072 0 19.999989201688901375 0
1762.5 319.99999047052358492 0 19.999990470523599129 0
1768.75 319.99999159026634743 0 19.999991590266358088 0
1775 319.99999257843592204 0 19.999992578435925594 0
1781.25 319.99999345049252497 0 19.99999345049254984 0
1787.5 319.9999942200798273 0 19.99999422007985217 0
1793.75 319.99999489923828833 0 19.999994899238284773 0
1800 319.99999549859353465 0 19.999995498593516885 0
1806.25 319.99999602752268402 0 19.999996027522669806 0
1812.5 319.99999649430100135 0 19.999996494301019112 0
1818.75 319.99999690623150173 0 19.999996906231476856 0
1825 319.9999972697588646 0 19.999997269758836183 0
1831.25 319.9999975905706151 0 19.99999759057061155 0
1837.5 319.99999787368602711 0 19.999997873686009342 0
1843.75 319.9999981235344535 0 19.999998123534478367 0
1850 319.99999834402495935 0 19.999998344024980668 0
1856.25 319.99999853860714438 0 19.999998538607169252 0
1862.5 319.99999871032537158 0 19.999998710325346707 0
1868.75 319.99999886186611775 0 19.999998861866107092 0
1875 319.99999899560037875 0 19.999998995600364537 0
1881.25 319.99999911362044713 0 19.99999911362042937 0
1887.5 319.99999921777276768 0 19.999999217772771232 0
1893.75 319.99999930968687067 0 19.999999309686891991 0
1900 319.99999939080083777 0 19.999999390800820009 0
1906.25 319.99999946238358461 0 19.999999462383609483 0
1912.5 319.99999952555521077 0 19.999999525555200108 0
1918.75 319.99999958130393907 0 19.999999581303931961 0
1925 319.99999963050203178 0 19.999999630502017567 0
1931.25 319.99999967391914879 0 19.999999673919173659 0
1937.5 319.99999971223468265 0 19.999999712234682647 0
1943.75 319.99999974604799036 0 19.999999746047997462 0
1950 319.99999977588817046 0 19.999999775888145592 0
1956.25 319.99999980222196427 0 19.999999802221982037 0
1962.5 319.99999982546148658 0 19.999999825461507896 0
1968.75 319.99999984597030789 0 19.999999845970325651 0
1975 319.9999998640693093 0 19.99999986406928798 0
1981.25 319.99999988004157103 0 19.999999880041567479 0
1987.5 319.99999989413703361 0 19.999999894137054923 0
1993.75 319.99999990657624949 0 19.999999906576277908 0
2000 319.99999991755385054 0 19.99999991755385409 0
2006.25 319.99999992724156073 0 19.999999927241532305 0
2012.5 319.99999993579086777 0 19.999999935790878425 0
2018.75 319.99999994333563791 0 19.999999943335648567 0
